Circuit: * C:\Users\Chris\Documents\git_electronicload\ltspice_simulation\MINI_LOAD_TRANSIENT IXYS.asc

Direct Newton iteration failed to find .op point.  (Use ".option noopiter" to skip.)
Starting Gmin stepping
Gmin = 10
Gmin = 1.07374
Gmin = 0.115292
Gmin = 0.0123794
Gmin = 0.00132923
Gmin = 0.000142725
Gmin = 1.5325e-005
Gmin = 1.6455e-006
Gmin = 1.76685e-007
Gmin = 1.89714e-008
Gmin = 2.03704e-009
Gmin = 2.18725e-010
Gmin = 2.34854e-011
Gmin = 2.52173e-012
Gmin = 2.70769e-013
Gmin = 0
Gmin stepping succeeded in finding the operating point.

Heightened Def Con from 3.00744e-006 to 3.00844e-006

Date: Tue Apr 09 17:59:52 2019
Total elapsed time: 12.896 seconds.

tnom = 27
temp = 27
method = modified trap
totiter = 267090
traniter = 266517
tranpoints = 54975
accept = 41370
rejected = 13606
matrix size = 178
fillins = 184
solver = Normal
Thread vector: 29.1/14.6[6] 9.6/4.7[6] 4.8/3.5[6] 0.5/1.9[1]  2592/500
Matrix Compiler1: 16.73 KB object code size  6.1/3.0/[1.2]
Matrix Compiler2: 17.81 KB object code size  2.6/3.3/[1.4]

